<?xml version="1.0" encoding="UTF-8"?>

<!-- generated on 2025-05-21 12:48:23 by Eclipse SUMO netedit Version 1.22.0
<neteditConfiguration xmlns:xsi="http://www.w3.org/2001/XMLSchema-instance" xsi:noNamespaceSchemaLocation="http://sumo.dlr.de/xsd/neteditConfiguration.xsd">

    <input>
        <sumocfg-file value="/home/laureoby/Documents/SUMO/FIFO_scénario/fifo.sumocfg"/>
        <additional-files value=""/>
        <route-files value="/home/laureoby/Documents/SUMO/FIFO_scénario/flow.rou.xml"/>
        <sumo-net-file value="/home/laureoby/Documents/SUMO/FIFO_scénario/road.net.xml"/>
    </input>

    <output>
        <output-file value="/home/laureoby/Documents/SUMO/FIFO_scénario/road.net.xml"/>
        <output.street-names value="true"/>
    </output>

    <processing>
        <geometry.min-radius.fix.railways value="false"/>
        <geometry.max-grade.fix value="false"/>
        <offset.disable-normalization value="true"/>
        <lefthand value="0"/>
    </processing>

    <junctions>
        <no-turnarounds value="true"/>
        <junctions.corner-detail value="5"/>
        <junctions.limit-turn-speed value="5.50"/>
        <rectangular-lane-cut value="0"/>
    </junctions>

    <pedestrian>
        <walkingareas value="0"/>
    </pedestrian>

</neteditConfiguration>
-->

<net version="1.20" junctionCornerDetail="5" limitTurnSpeed="5.50" xmlns:xsi="http://www.w3.org/2001/XMLSchema-instance" xsi:noNamespaceSchemaLocation="http://sumo.dlr.de/xsd/net_file.xsd">

    <location netOffset="0.00,0.00" convBoundary="-100.00,-100.00,100.00,100.00" origBoundary="-10000000000.00,-10000000000.00,10000000000.00,10000000000.00" projParameter="!"/>

    <edge id=":J12_0" function="internal">
        <lane id=":J12_0_0" index="0" speed="8.00" length="9.50" width="5.00" shape="-2.50,27.90 -2.84,25.67 -3.87,23.76 -5.59,22.15 -8.00,20.86"/>
    </edge>
    <edge id=":J12_1" function="internal">
        <lane id=":J12_1_0" index="0" speed="8.00" length="9.50" width="5.00" shape="8.00,20.86 5.59,22.15 3.87,23.76 2.84,25.67 2.50,27.90"/>
    </edge>
    <edge id=":J12_2" function="internal">
        <lane id=":J12_2_0" index="0" speed="13.37" length="16.41" width="5.00" shape="8.00,20.86 4.00,22.10 0.00,22.52 -4.00,22.10 -8.00,20.86"/>
    </edge>
    <edge id=":J13_0" function="internal">
        <lane id=":J13_0_0" index="0" speed="8.00" length="9.50" width="5.00" shape="27.90,2.50 25.67,2.84 23.76,3.87 22.15,5.59 20.86,8.00"/>
    </edge>
    <edge id=":J13_1" function="internal">
        <lane id=":J13_1_0" index="0" speed="8.00" length="9.50" width="5.00" shape="20.86,-8.00 22.15,-5.59 23.76,-3.87 25.67,-2.84 27.90,-2.50"/>
    </edge>
    <edge id=":J13_2" function="internal">
        <lane id=":J13_2_0" index="0" speed="13.37" length="16.41" width="5.00" shape="20.86,-8.00 22.10,-4.00 22.52,-0.00 22.10,4.00 20.86,8.00"/>
    </edge>
    <edge id=":J14_0" function="internal">
        <lane id=":J14_0_0" index="0" speed="8.00" length="9.50" width="5.00" shape="2.50,-27.90 2.84,-25.67 3.87,-23.76 5.59,-22.15 8.00,-20.86"/>
    </edge>
    <edge id=":J14_1" function="internal">
        <lane id=":J14_1_0" index="0" speed="8.00" length="9.50" width="5.00" shape="-8.00,-20.86 -5.59,-22.15 -3.87,-23.76 -2.84,-25.67 -2.50,-27.90"/>
    </edge>
    <edge id=":J14_2" function="internal">
        <lane id=":J14_2_0" index="0" speed="13.37" length="16.41" width="5.00" shape="-8.00,-20.86 -4.00,-22.10 -0.00,-22.52 4.00,-22.10 8.00,-20.86"/>
    </edge>
    <edge id=":J15_0" function="internal">
        <lane id=":J15_0_0" index="0" speed="8.00" length="9.50" width="5.00" shape="-20.86,8.00 -22.15,5.59 -23.76,3.87 -25.67,2.84 -27.90,2.50"/>
    </edge>
    <edge id=":J15_1" function="internal">
        <lane id=":J15_1_0" index="0" speed="13.37" length="16.41" width="5.00" shape="-20.86,8.00 -22.10,4.00 -22.52,0.00 -22.10,-4.00 -20.86,-8.00"/>
    </edge>
    <edge id=":J15_2" function="internal">
        <lane id=":J15_2_0" index="0" speed="8.00" length="9.50" width="5.00" shape="-27.90,-2.50 -25.67,-2.84 -23.76,-3.87 -22.15,-5.59 -20.86,-8.00"/>
    </edge>

    <edge id="-E3" from="J15" to="J7" priority="-1">
        <lane id="-E3_0" index="0" speed="13.89" length="72.10" width="5.00" shape="-27.90,2.50 -100.00,2.50"/>
    </edge>
    <edge id="-E4" from="J9" to="J13" priority="-1">
        <lane id="-E4_0" index="0" speed="13.89" length="72.10" width="5.00" shape="100.00,2.50 27.90,2.50"/>
    </edge>
    <edge id="-E5" from="J12" to="J10" priority="-1">
        <lane id="-E5_0" index="0" speed="13.89" length="72.10" width="5.00" shape="2.50,27.90 2.50,100.00"/>
    </edge>
    <edge id="-E6" from="J11" to="J14" priority="-1">
        <lane id="-E6_0" index="0" speed="13.89" length="72.10" width="5.00" shape="2.50,-100.00 2.50,-27.90"/>
    </edge>
    <edge id="E10" from="J12" to="J15" priority="-1" shape="0.00,20.00 -5.18,19.32 -10.00,17.32 -14.14,14.14 -17.32,10.00 -19.32,5.18 -20.00,0.00">
        <lane id="E10_0" index="0" speed="13.89" length="18.83" width="5.00" shape="-8.00,20.86 -11.26,19.50 -15.92,15.92 -19.50,11.26 -20.86,8.00"/>
    </edge>
    <edge id="E3" from="J7" to="J15" priority="-1">
        <lane id="E3_0" index="0" speed="13.89" length="72.10" width="5.00" shape="-100.00,-2.50 -27.90,-2.50"/>
    </edge>
    <edge id="E4" from="J13" to="J9" priority="-1">
        <lane id="E4_0" index="0" speed="13.89" length="72.10" width="5.00" shape="27.90,-2.50 100.00,-2.50"/>
    </edge>
    <edge id="E5" from="J10" to="J12" priority="-1">
        <lane id="E5_0" index="0" speed="13.89" length="72.10" width="5.00" shape="-2.50,100.00 -2.50,27.90"/>
    </edge>
    <edge id="E6" from="J14" to="J11" priority="-1">
        <lane id="E6_0" index="0" speed="13.89" length="72.10" width="5.00" shape="-2.50,-27.90 -2.50,-100.00"/>
    </edge>
    <edge id="E7" from="J13" to="J12" priority="-1" shape="20.00,0.00 19.32,5.18 17.32,10.00 14.14,14.14 10.00,17.32 5.18,19.32 0.00,20.00">
        <lane id="E7_0" index="0" speed="13.89" length="18.83" width="5.00" shape="20.86,8.00 19.50,11.26 15.92,15.92 11.26,19.50 8.00,20.86"/>
    </edge>
    <edge id="E8" from="J14" to="J13" priority="-1" shape="0.00,-20.00 5.18,-19.32 10.00,-17.32 14.14,-14.14 17.32,-10.00 19.32,-5.18 20.00,0.00">
        <lane id="E8_0" index="0" speed="13.89" length="18.83" width="5.00" shape="8.00,-20.86 11.26,-19.50 15.92,-15.92 19.50,-11.26 20.86,-8.00"/>
    </edge>
    <edge id="E9" from="J15" to="J14" priority="-1" shape="-20.00,0.00 -19.32,-5.18 -17.32,-10.00 -14.14,-14.14 -10.00,-17.32 -5.18,-19.32 0.00,-20.00">
        <lane id="E9_0" index="0" speed="13.89" length="18.83" width="5.00" shape="-20.86,-8.00 -19.50,-11.26 -15.92,-15.92 -11.26,-19.50 -8.00,-20.86"/>
    </edge>

    <junction id="J10" type="dead_end" x="0.00" y="100.00" incLanes="-E5_0" intLanes="" shape="0.00,100.00 5.00,100.00 0.00,100.00"/>
    <junction id="J11" type="dead_end" x="0.00" y="-100.00" incLanes="E6_0" intLanes="" shape="0.00,-100.00 -5.00,-100.00 0.00,-100.00"/>
    <junction id="J12" type="priority" x="0.00" y="20.00" incLanes="E5_0 E7_0" intLanes=":J12_0_0 :J12_1_0 :J12_2_0" shape="-5.00,27.90 5.00,27.90 5.37,26.03 5.84,25.23 6.49,24.53 7.32,23.93 8.34,23.42 7.65,18.30 5.10,19.18 2.55,19.71 0.00,19.88 -2.55,19.71 -5.10,19.18 -7.65,18.30 -8.34,23.42 -6.49,24.53 -5.84,25.23 -5.37,26.03 -5.09,26.91">
        <request index="0" response="100" foes="100" cont="0"/>
        <request index="1" response="000" foes="000" cont="0"/>
        <request index="2" response="000" foes="001" cont="0"/>
    </junction>
    <junction id="J13" type="priority" x="20.00" y="0.00" incLanes="-E4_0 E8_0" intLanes=":J13_0_0 :J13_1_0 :J13_2_0" shape="27.90,5.00 27.90,-5.00 26.03,-5.37 25.23,-5.84 24.53,-6.49 23.93,-7.32 23.42,-8.34 18.30,-7.65 19.18,-5.10 19.71,-2.55 19.88,-0.00 19.71,2.55 19.18,5.10 18.30,7.65 23.42,8.34 24.53,6.49 25.23,5.84 26.03,5.37 26.91,5.09">
        <request index="0" response="100" foes="100" cont="0"/>
        <request index="1" response="000" foes="000" cont="0"/>
        <request index="2" response="000" foes="001" cont="0"/>
    </junction>
    <junction id="J14" type="priority" x="0.00" y="-20.00" incLanes="-E6_0 E9_0" intLanes=":J14_0_0 :J14_1_0 :J14_2_0" shape="7.65,-18.30 8.34,-23.42 6.49,-24.53 5.84,-25.23 5.37,-26.03 5.09,-26.91 5.00,-27.90 -5.00,-27.90 -5.37,-26.03 -5.84,-25.23 -6.49,-24.53 -7.32,-23.93 -8.34,-23.42 -7.65,-18.30 -5.10,-19.18 -2.55,-19.71 -0.00,-19.88 2.55,-19.71 5.10,-19.18">
        <request index="0" response="100" foes="100" cont="0"/>
        <request index="1" response="000" foes="000" cont="0"/>
        <request index="2" response="000" foes="001" cont="0"/>
    </junction>
    <junction id="J15" type="priority" x="-20.00" y="0.00" incLanes="E10_0 E3_0" intLanes=":J15_0_0 :J15_1_0 :J15_2_0" shape="-23.42,8.34 -18.30,7.65 -19.18,5.10 -19.71,2.55 -19.88,0.00 -19.71,-2.55 -19.18,-5.10 -18.30,-7.65 -23.42,-8.34 -24.53,-6.49 -25.23,-5.84 -26.03,-5.37 -26.91,-5.09 -27.90,-5.00 -27.90,5.00 -26.03,5.37 -25.23,5.84 -24.53,6.49 -23.93,7.32">
        <request index="0" response="000" foes="000" cont="0"/>
        <request index="1" response="000" foes="100" cont="0"/>
        <request index="2" response="010" foes="010" cont="0"/>
    </junction>
    <junction id="J7" type="dead_end" x="-100.00" y="0.00" incLanes="-E3_0" intLanes="" shape="-100.00,0.00 -100.00,5.00 -100.00,0.00"/>
    <junction id="J9" type="dead_end" x="100.00" y="0.00" incLanes="E4_0" intLanes="" shape="100.00,0.00 100.00,-5.00 100.00,0.00"/>

    <connection from="-E4" to="E7" fromLane="0" toLane="0" via=":J13_0_0" dir="r" state="m" visibility="9.00"/>
    <connection from="-E6" to="E8" fromLane="0" toLane="0" via=":J14_0_0" dir="r" state="m" visibility="9.00"/>
    <connection from="E10" to="-E3" fromLane="0" toLane="0" via=":J15_0_0" dir="r" state="M"/>
    <connection from="E10" to="E9" fromLane="0" toLane="0" via=":J15_1_0" dir="s" state="M"/>
    <connection from="E3" to="E9" fromLane="0" toLane="0" via=":J15_2_0" dir="r" state="m" visibility="9.00"/>
    <connection from="E5" to="E10" fromLane="0" toLane="0" via=":J12_0_0" dir="r" state="m" visibility="9.00"/>
    <connection from="E7" to="-E5" fromLane="0" toLane="0" via=":J12_1_0" dir="r" state="M"/>
    <connection from="E7" to="E10" fromLane="0" toLane="0" via=":J12_2_0" dir="s" state="M"/>
    <connection from="E8" to="E4" fromLane="0" toLane="0" via=":J13_1_0" dir="r" state="M"/>
    <connection from="E8" to="E7" fromLane="0" toLane="0" via=":J13_2_0" dir="s" state="M"/>
    <connection from="E9" to="E6" fromLane="0" toLane="0" via=":J14_1_0" dir="r" state="M"/>
    <connection from="E9" to="E8" fromLane="0" toLane="0" via=":J14_2_0" dir="s" state="M"/>

    <connection from=":J12_0" to="E10" fromLane="0" toLane="0" dir="r" state="M"/>
    <connection from=":J12_1" to="-E5" fromLane="0" toLane="0" dir="r" state="M"/>
    <connection from=":J12_2" to="E10" fromLane="0" toLane="0" dir="s" state="M"/>
    <connection from=":J13_0" to="E7" fromLane="0" toLane="0" dir="r" state="M"/>
    <connection from=":J13_1" to="E4" fromLane="0" toLane="0" dir="r" state="M"/>
    <connection from=":J13_2" to="E7" fromLane="0" toLane="0" dir="s" state="M"/>
    <connection from=":J14_0" to="E8" fromLane="0" toLane="0" dir="r" state="M"/>
    <connection from=":J14_1" to="E6" fromLane="0" toLane="0" dir="r" state="M"/>
    <connection from=":J14_2" to="E8" fromLane="0" toLane="0" dir="s" state="M"/>
    <connection from=":J15_0" to="-E3" fromLane="0" toLane="0" dir="r" state="M"/>
    <connection from=":J15_1" to="E9" fromLane="0" toLane="0" dir="s" state="M"/>
    <connection from=":J15_2" to="E9" fromLane="0" toLane="0" dir="r" state="M"/>

    <roundabout nodes="J12 J13 J14 J15" edges="E10 E7 E8 E9"/>
    <roundabout nodes="J11 J12 J12 J9" edges="E4 E5 E6 E7"/>

</net>
